6

C          1.07350169    -0.05589960    -0.06015647  
C          2.40066108    -0.05592924    -0.06014146  
H          0.47676552     0.28183008    -0.89715195  
H          0.47668077    -0.39372902     0.77592366  
H          2.99732679     0.28187341    -0.89716229  
H          2.99737381    -0.39371300     0.77590975  
